pyensys/tests/matpower/matpower_rnm_network.m
function mpc = matpower_rnm_network
%Please see CASEFORMAT for details on the case file format.
%Example for running a case
%mpc = matpower_rnm_network
%mpopt = mpoption('pf.alg', 'NR', 'pf.tol', 1e-8, 'pf.nr.max_it', 1000);
%results = runpf(mpc, mpopt);
% MATPOWER Case Format : Version 2
mpc.version = '2';
%-----  Power Flow Data  -----%%
% system MVA base
mpc.baseMVA = 0.1;
% bus data
%bus_i type Pd	Qd Gs Bs area Vm Va baseKV zone	Vmax Vmin
mpc.bus = [
1 3 0 0 0 0 1 1 0 400 1 1.1 0.9
7966 1 2.871 0.8613 0 0 1 1 0 20 1 1.1 0.9
7967 1 9.956 2.9868 0 0 1 1 0 20 1 1.1 0.9
7968 1 3.573 1.0719 0 0 1 1 0 20 1 1.1 0.9
7969 1 6.147 1.8441 0 0 1 1 0 20 1 1.1 0.9
7970 1 5.157 1.5471 0 0 1 1 0 20 1 1.1 0.9
7971 1 3.672 1.1016 0 0 1 1 0 20 1 1.1 0.9
7972 1 1.386 0.4158 0 0 1 1 0 20 1 1.1 0.9
7973 1 6.057 1.8171 0 0 1 1 0 20 1 1.1 0.9
7974 1 1.881 0.5643 0 0 1 1 0 20 1 1.1 0.9
7975 1 3.177 0.9531 0 0 1 1 0 20 1 1.1 0.9
7976 1 8.451 2.5353 0 0 1 1 0 20 1 1.1 0.9
7977 1 5.76 1.728 0 0 1 1 0 20 1 1.1 0.9
7978 1 1.197 0.3591 0 0 1 1 0 20 1 1.1 0.9
7979 1 3.384 1.0152 0 0 1 1 0 20 1 1.1 0.9
7980 1 2.871 0.8613 0 0 1 1 0 20 1 1.1 0.9
7981 1 5.265 1.5795 0 0 1 1 0 20 1 1.1 0.9
7982 1 0.297 0.0891 0 0 1 1 0 20 1 1.1 0.9
7983 1 4.86 1.458 0 0 1 1 0 20 1 1.1 0.9
7984 1 3.978 1.1934 0 0 1 1 0 20 1 1.1 0.9
7985 1 0.57 0.171 0 0 1 1 0 20 1 1.1 0.9
7986 1 0.5232 0.15696 0 0 1 1 0 20 1 1.1 0.9
7987 1 0.5568 0.16704 0 0 1 1 0 20 1 1.1 0.9
7988 1 0.5166 0.15498 0 0 1 1 0 20 1 1.1 0.9
7989 1 0.516 0.1548 0 0 1 1 0 20 1 1.1 0.9
7990 1 0.5568 0.16704 0 0 1 1 0 20 1 1.1 0.9
7991 1 0.5199 0.15597 0 0 1 1 0 20 1 1.1 0.9
7992 1 0.5436 0.16308 0 0 1 1 0 20 1 1.1 0.9
7993 1 0.6228 0.18684 0 0 1 1 0 20 1 1.1 0.9
7994 1 0.64 0.192 0 0 1 1 0 20 1 1.1 0.9
7995 1 0.5255 0.15765 0 0 1 1 0 20 1 1.1 0.9
7996 1 0.624 0.1872 0 0 1 1 0 20 1 1.1 0.9
7997 1 0.581 0.1743 0 0 1 1 0 20 1 1.1 0.9
7998 1 0.57 0.171 0 0 1 1 0 20 1 1.1 0.9
7999 1 0.691 0.2073 0 0 1 1 0 20 1 1.1 0.9
8000 1 0.537 0.1611 0 0 1 1 0 20 1 1.1 0.9
8001 1 0.7185 0.21555 0 0 1 1 0 20 1 1.1 0.9
8002 1 0.541 0.1623 0 0 1 1 0 20 1 1.1 0.9
8003 1 0.541 0.1623 0 0 1 1 0 20 1 1.1 0.9
8004 1 0.536 0.1608 0 0 1 1 0 20 1 1.1 0.9
8005 1 0.547 0.1641 0 0 1 1 0 20 1 1.1 0.9
8006 1 0.7415 0.22245 0 0 1 1 0 20 1 1.1 0.9
8007 1 0.537 0.1611 0 0 1 1 0 20 1 1.1 0.9
8395 1 0.50173 0.16681 0 0 1 1 0 20 1 1.1 0.9
8396 1 0.5099 0.16976 0 0 1 1 0 20 1 1.1 0.9
8397 1 0.27449 0.089451 0 0 1 1 0 20 1 1.1 0.9
8398 1 0.32293 0.10722 0 0 1 1 0 20 1 1.1 0.9
8399 1 0.19141 0.062984 0 0 1 1 0 20 1 1.1 0.9
8400 1 0.14862 0.047942 0 0 1 1 0 20 1 1.1 0.9
8401 1 0.77568 0.25733 0 0 1 1 0 20 1 1.1 0.9
8402 1 0.5929 0.19282 0 0 1 1 0 20 1 1.1 0.9
8403 1 0.33967 0.1092 0 0 1 1 0 20 1 1.1 0.9
8404 1 0.18459 0.060462 0 0 1 1 0 20 1 1.1 0.9
8405 1 0.41323 0.13559 0 0 1 1 0 20 1 1.1 0.9
8406 1 0.11986 0.038131 0 0 1 1 0 20 1 1.1 0.9
8407 1 0.56627 0.18331 0 0 1 1 0 20 1 1.1 0.9
8408 1 0.40022 0.13007 0 0 1 1 0 20 1 1.1 0.9
8409 1 0.078626 0.024479 0 0 1 1 0 20 1 1.1 0.9
8410 1 0.29645 0.097714 0 0 1 1 0 20 1 1.1 0.9
8411 1 0.21663 0.069981 0 0 1 1 0 20 1 1.1 0.9
8412 1 0.57489 0.18615 0 0 1 1 0 20 1 1.1 0.9
8413 1 0.31948 0.10551 0 0 1 1 0 20 1 1.1 0.9
8414 1 0.14463 0.046643 0 0 1 1 0 20 1 1.1 0.9
8415 1 0.27557 0.09013 0 0 1 1 0 20 1 1.1 0.9
8416 1 0.33656 0.10819 0 0 1 1 0 20 1 1.1 0.9
8417 1 0.2867 0.094016 0 0 1 1 0 20 1 1.1 0.9
8418 1 0.5601 0.18167 0 0 1 1 0 20 1 1.1 0.9
8419 1 0.34924 0.11247 0 0 1 1 0 20 1 1.1 0.9
8420 1 0.20048 0.066388 0 0 1 1 0 20 1 1.1 0.9
8421 1 0.31791 0.10529 0 0 1 1 0 20 1 1.1 0.9
8422 1 0.32781 0.10894 0 0 1 1 0 20 1 1.1 0.9
8423 1 0.51492 0.17138 0 0 1 1 0 20 1 1.1 0.9
8424 1 0.78406 0.25981 0 0 1 1 0 20 1 1.1 0.9
8425 1 0.19478 0.064457 0 0 1 1 0 20 1 1.1 0.9
8426 1 0.45859 0.15112 0 0 1 1 0 20 1 1.1 0.9
8427 1 0.1447 0.046599 0 0 1 1 0 20 1 1.1 0.9
8428 1 0.1014 0.031997 0 0 1 1 0 20 1 1.1 0.9
8429 1 0.7708 0.25365 0 0 1 1 0 20 1 1.1 0.9
8430 1 0.20681 0.068669 0 0 1 1 0 20 1 1.1 0.9
8431 1 0.43686 0.14544 0 0 1 1 0 20 1 1.1 0.9
8432 1 0.57165 0.18509 0 0 1 1 0 20 1 1.1 0.9
8433 1 0.57524 0.1865 0 0 1 1 0 20 1 1.1 0.9
8434 1 0.36214 0.11695 0 0 1 1 0 20 1 1.1 0.9
8435 1 0.5486 0.17737 0 0 1 1 0 20 1 1.1 0.9
8436 1 0.20879 0.066747 0 0 1 1 0 20 1 1.1 0.9
8437 1 0.42902 0.14023 0 0 1 1 0 20 1 1.1 0.9
8438 1 0.12938 0.041435 0 0 1 1 0 20 1 1.1 0.9
8439 1 0.13468 0.0432 0 0 1 1 0 20 1 1.1 0.9
8440 1 0.72898 0.24118 0 0 1 1 0 20 1 1.1 0.9
8441 1 0.46674 0.15395 0 0 1 1 0 20 1 1.1 0.9
8442 1 0.1478 0.047622 0 0 1 1 0 20 1 1.1 0.9
8443 1 0.1475 0.047419 0 0 1 1 0 20 1 1.1 0.9
8444 1 0.6619 0.21643 0 0 1 1 0 20 1 1.1 0.9
8445 1 0.1623 0.052753 0 0 1 1 0 20 1 1.1 0.9
8446 1 0.39962 0.13003 0 0 1 1 0 20 1 1.1 0.9
8447 1 0.5396 0.17547 0 0 1 1 0 20 1 1.1 0.9
8448 1 0.16617 0.054015 0 0 1 1 0 20 1 1.1 0.9
8449 1 0.3756 0.12161 0 0 1 1 0 20 1 1.1 0.9
8450 1 0 0 0 0 1 1 0 20 1 1.1 0.9
8451 1 0.17598 0.057706 0 0 1 1 0 20 1 1.1 0.9
8452 1 0.4939 0.16356 0 0 1 1 0 20 1 1.1 0.9
8453 1 0.34266 0.11023 0 0 1 1 0 20 1 1.1 0.9
8454 1 0.30075 0.099611 0 0 1 1 0 20 1 1.1 0.9
8455 1 0.33273 0.10672 0 0 1 1 0 20 1 1.1 0.9
8456 1 0.23426 0.075474 0 0 1 1 0 20 1 1.1 0.9
8457 1 0.021543 0.0065328 0 0 1 1 0 20 1 1.1 0.9
8458 1 0.25267 0.08221 0 0 1 1 0 20 1 1.1 0.9
8459 1 0.20567 0.068364 0 0 1 1 0 20 1 1.1 0.9
8460 1 0.20408 0.067705 0 0 1 1 0 20 1 1.1 0.9
8461 1 0.078244 0.024427 0 0 1 1 0 20 1 1.1 0.9
8462 1 0.42048 0.13732 0 0 1 1 0 20 1 1.1 0.9
8463 1 0.19461 0.064221 0 0 1 1 0 20 1 1.1 0.9
8464 1 0.44702 0.14686 0 0 1 1 0 20 1 1.1 0.9
8465 1 0.53575 0.17231 0 0 1 1 0 20 1 1.1 0.9
8466 1 0.79945 0.26574 0 0 1 1 0 20 1 1.1 0.9
8467 1 0.035477 0.010833 0 0 1 1 0 20 1 1.1 0.9
8468 1 0.27179 0.089077 0 0 1 1 0 20 1 1.1 0.9
8469 1 0.56381 0.18301 0 0 1 1 0 20 1 1.1 0.9
8470 1 0.40787 0.13307 0 0 1 1 0 20 1 1.1 0.9
8471 1 0.59855 0.1939 0 0 1 1 0 20 1 1.1 0.9
8472 1 0.53351 0.17144 0 0 1 1 0 20 1 1.1 0.9
8473 1 0.28817 0.094198 0 0 1 1 0 20 1 1.1 0.9
8474 1 0.21321 0.068415 0 0 1 1 0 20 1 1.1 0.9
8475 1 0.36475 0.11775 0 0 1 1 0 20 1 1.1 0.9
8476 1 0.073395 0.022849 0 0 1 1 0 20 1 1.1 0.9
8477 1 0.38361 0.12593 0 0 1 1 0 20 1 1.1 0.9
8478 1 0.32786 0.10852 0 0 1 1 0 20 1 1.1 0.9
8479 1 0.15301 0.049415 0 0 1 1 0 20 1 1.1 0.9
8480 1 0.18627 0.061244 0 0 1 1 0 20 1 1.1 0.9
8481 1 0.52638 0.17499 0 0 1 1 0 20 1 1.1 0.9
8482 1 0.47311 0.15566 0 0 1 1 0 20 1 1.1 0.9
8483 1 0.66869 0.21906 0 0 1 1 0 20 1 1.1 0.9
8484 1 0.44692 0.14804 0 0 1 1 0 20 1 1.1 0.9
8485 1 0.19848 0.065548 0 0 1 1 0 20 1 1.1 0.9
8486 1 0 0 0 0 1 1 0 20 1 1.1 0.9
8487 1 0.68985 0.22636 0 0 1 1 0 20 1 1.1 0.9
8488 1 0.20782 0.066498 0 0 1 1 0 20 1 1.1 0.9
8489 1 0.13171 0.042105 0 0 1 1 0 20 1 1.1 0.9
8490 1 0.16814 0.054876 0 0 1 1 0 20 1 1.1 0.9
8491 1 0.40241 0.13127 0 0 1 1 0 20 1 1.1 0.9
8492 1 0.32071 0.10646 0 0 1 1 0 20 1 1.1 0.9
8493 1 0.44138 0.14481 0 0 1 1 0 20 1 1.1 0.9
8494 1 0.11037 0.034962 0 0 1 1 0 20 1 1.1 0.9
8495 1 0.32221 0.10674 0 0 1 1 0 20 1 1.1 0.9
8496 1 0.18549 0.060853 0 0 1 1 0 20 1 1.1 0.9
8497 1 0.60098 0.19616 0 0 1 1 0 20 1 1.1 0.9
8498 1 0.70714 0.23252 0 0 1 1 0 20 1 1.1 0.9
8499 1 0.31581 0.10451 0 0 1 1 0 20 1 1.1 0.9
8500 1 0.80229 0.26683 0 0 1 1 0 20 1 1.1 0.9
8501 1 0.20404 0.067437 0 0 1 1 0 20 1 1.1 0.9
8502 1 0.36433 0.11711 0 0 1 1 0 20 1 1.1 0.9
8503 1 0.7399 0.2443 0 0 1 1 0 20 1 1.1 0.9
8504 1 0.16359 0.053103 0 0 1 1 0 20 1 1.1 0.9
8505 1 0.31877 0.10551 0 0 1 1 0 20 1 1.1 0.9
8506 1 0.70008 0.2306 0 0 1 1 0 20 1 1.1 0.9
8507 1 0.16954 0.055222 0 0 1 1 0 20 1 1.1 0.9
8508 1 0.20603 0.068244 0 0 1 1 0 20 1 1.1 0.9
8509 1 0.19355 0.063657 0 0 1 1 0 20 1 1.1 0.9
8510 1 0.19041 0.062584 0 0 1 1 0 20 1 1.1 0.9
8511 1 0.5086 0.16893 0 0 1 1 0 20 1 1.1 0.9
8512 1 0.48041 0.15951 0 0 1 1 0 20 1 1.1 0.9
8513 1 0.70865 0.23313 0 0 1 1 0 20 1 1.1 0.9
8514 1 0.46276 0.15281 0 0 1 1 0 20 1 1.1 0.9
8515 1 0.57275 0.18511 0 0 1 1 0 20 1 1.1 0.9
8516 1 0.23992 0.077573 0 0 1 1 0 20 1 1.1 0.9
8517 1 0.67926 0.22296 0 0 1 1 0 20 1 1.1 0.9
8518 1 0.22225 0.071602 0 0 1 1 0 20 1 1.1 0.9
8519 1 0.67783 0.22196 0 0 1 1 0 20 1 1.1 0.9
8520 1 0.27982 0.091649 0 0 1 1 0 20 1 1.1 0.9
8521 1 0.70554 0.23213 0 0 1 1 0 20 1 1.1 0.9
8522 1 0.30241 0.099553 0 0 1 1 0 20 1 1.1 0.9
8523 1 0.47827 0.15778 0 0 1 1 0 20 1 1.1 0.9
8524 1 0.49198 0.16308 0 0 1 1 0 20 1 1.1 0.9
8525 1 0.13218 0.042326 0 0 1 1 0 20 1 1.1 0.9
8526 1 0.41031 0.13431 0 0 1 1 0 20 1 1.1 0.9
8527 1 0.20817 0.06644 0 0 1 1 0 20 1 1.1 0.9
8528 1 0.10482 0.033089 0 0 1 1 0 20 1 1.1 0.9
8529 1 0.17522 0.057274 0 0 1 1 0 20 1 1.1 0.9
8530 1 0.62844 0.20422 0 0 1 1 0 20 1 1.1 0.9
8531 1 0.19837 0.065521 0 0 1 1 0 20 1 1.1 0.9
8532 1 0.18241 0.060002 0 0 1 1 0 20 1 1.1 0.9
8533 1 0.047113 0.014463 0 0 1 1 0 20 1 1.1 0.9
8534 1 0.46811 0.15463 0 0 1 1 0 20 1 1.1 0.9
8535 1 0.17133 0.055923 0 0 1 1 0 20 1 1.1 0.9
8536 1 0.12535 0.039902 0 0 1 1 0 20 1 1.1 0.9
8537 1 0.19892 0.065716 0 0 1 1 0 20 1 1.1 0.9
8538 1 0.19841 0.065574 0 0 1 1 0 20 1 1.1 0.9
8539 1 0.78294 0.26045 0 0 1 1 0 20 1 1.1 0.9
8540 1 0.2669 0.087009 0 0 1 1 0 20 1 1.1 0.9
8541 1 0.41396 0.13494 0 0 1 1 0 20 1 1.1 0.9
8542 1 0.3117 0.10323 0 0 1 1 0 20 1 1.1 0.9
8543 1 0.40249 0.13144 0 0 1 1 0 20 1 1.1 0.9
8544 1 0.51977 0.17327 0 0 1 1 0 20 1 1.1 0.9
8545 1 0.3587 0.11555 0 0 1 1 0 20 1 1.1 0.9
8546 1 0.75223 0.24971 0 0 1 1 0 20 1 1.1 0.9
8547 1 0.40795 0.13296 0 0 1 1 0 20 1 1.1 0.9
8548 1 0.59588 0.19312 0 0 1 1 0 20 1 1.1 0.9
8549 1 0.39955 0.12979 0 0 1 1 0 20 1 1.1 0.9
8550 1 0.40687 0.13328 0 0 1 1 0 20 1 1.1 0.9
8551 1 0.094187 0.029571 0 0 1 1 0 20 1 1.1 0.9
8552 1 0.11789 0.037539 0 0 1 1 0 20 1 1.1 0.9
8553 1 0.22981 0.07408 0 0 1 1 0 20 1 1.1 0.9
8554 1 0.13382 0.042915 0 0 1 1 0 20 1 1.1 0.9
8555 1 0.49122 0.16258 0 0 1 1 0 20 1 1.1 0.9
8556 1 0.17501 0.057175 0 0 1 1 0 20 1 1.1 0.9
8557 1 0.36575 0.11837 0 0 1 1 0 20 1 1.1 0.9
8558 1 0.49009 0.16217 0 0 1 1 0 20 1 1.1 0.9
8559 1 0.11142 0.035228 0 0 1 1 0 20 1 1.1 0.9
8560 1 0.43742 0.14325 0 0 1 1 0 20 1 1.1 0.9
8561 1 0.18173 0.059636 0 0 1 1 0 20 1 1.1 0.9
8562 1 0.30749 0.1017 0 0 1 1 0 20 1 1.1 0.9
8563 1 0.37962 0.12275 0 0 1 1 0 20 1 1.1 0.9
8564 1 0.14861 0.047942 0 0 1 1 0 20 1 1.1 0.9
8565 1 0.4449 0.14574 0 0 1 1 0 20 1 1.1 0.9
8566 1 0.28312 0.092911 0 0 1 1 0 20 1 1.1 0.9
8567 1 0.66407 0.21702 0 0 1 1 0 20 1 1.1 0.9
8568 1 0.47613 0.15713 0 0 1 1 0 20 1 1.1 0.9
8569 1 0.40873 0.13336 0 0 1 1 0 20 1 1.1 0.9
8570 1 0.41429 0.13581 0 0 1 1 0 20 1 1.1 0.9
8571 1 0.46607 0.15327 0 0 1 1 0 20 1 1.1 0.9
8572 1 0.23231 0.07485 0 0 1 1 0 20 1 1.1 0.9
8573 1 0.27494 0.089878 0 0 1 1 0 20 1 1.1 0.9
8574 1 0.68263 0.22439 0 0 1 1 0 20 1 1.1 0.9
8575 1 0.41919 0.13689 0 0 1 1 0 20 1 1.1 0.9
8576 1 0.20408 0.067663 0 0 1 1 0 20 1 1.1 0.9
8577 1 0.30205 0.099646 0 0 1 1 0 20 1 1.1 0.9
8578 1 0.064904 0.020102 0 0 1 1 0 20 1 1.1 0.9
8579 1 0.42223 0.13982 0 0 1 1 0 20 1 1.1 0.9
8580 1 0.15392 0.049802 0 0 1 1 0 20 1 1.1 0.9
8581 1 0.15829 0.051292 0 0 1 1 0 20 1 1.1 0.9
8582 1 0.33052 0.10973 0 0 1 1 0 20 1 1.1 0.9
8583 1 0.071285 0.022093 0 0 1 1 0 20 1 1.1 0.9
8584 1 0.44341 0.14572 0 0 1 1 0 20 1 1.1 0.9
8585 1 0.4787 0.15811 0 0 1 1 0 20 1 1.1 0.9
8586 1 0.14907 0.048388 0 0 1 1 0 20 1 1.1 0.9
8587 1 0.45077 0.14836 0 0 1 1 0 20 1 1.1 0.9
8588 1 0.75432 0.24983 0 0 1 1 0 20 1 1.1 0.9
8589 1 0.21431 0.068813 0 0 1 1 0 20 1 1.1 0.9
8590 1 0.12779 0.040886 0 0 1 1 0 20 1 1.1 0.9
8591 1 0.49775 0.16527 0 0 1 1 0 20 1 1.1 0.9
8592 1 0.52021 0.17368 0 0 1 1 0 20 1 1.1 0.9
8593 1 0.78394 0.25968 0 0 1 1 0 20 1 1.1 0.9
8594 1 0.42346 0.13943 0 0 1 1 0 20 1 1.1 0.9
8595 1 0.52218 0.17498 0 0 1 1 0 20 1 1.1 0.9
8596 1 0.42996 0.14126 0 0 1 1 0 20 1 1.1 0.9
8597 1 0.30817 0.10175 0 0 1 1 0 20 1 1.1 0.9
8598 1 0.62055 0.20174 0 0 1 1 0 20 1 1.1 0.9
8599 1 0.17336 0.056671 0 0 1 1 0 20 1 1.1 0.9
8600 1 0.5882 0.19175 0 0 1 1 0 20 1 1.1 0.9
8601 1 0.35186 0.11362 0 0 1 1 0 20 1 1.1 0.9
8602 1 0.11803 0.037518 0 0 1 1 0 20 1 1.1 0.9
8603 1 0.73389 0.24255 0 0 1 1 0 20 1 1.1 0.9
8604 1 0.49253 0.16292 0 0 1 1 0 20 1 1.1 0.9
8605 1 0.19497 0.064384 0 0 1 1 0 20 1 1.1 0.9
8606 1 0.2522 0.081867 0 0 1 1 0 20 1 1.1 0.9
8607 1 0.31115 0.10244 0 0 1 1 0 20 1 1.1 0.9
8608 1 0.19333 0.063744 0 0 1 1 0 20 1 1.1 0.9
8609 1 0.55316 0.17865 0 0 1 1 0 20 1 1.1 0.9
8610 1 0.30475 0.10045 0 0 1 1 0 20 1 1.1 0.9
8611 1 0.56273 0.18197 0 0 1 1 0 20 1 1.1 0.9
8612 1 0.16839 0.054842 0 0 1 1 0 20 1 1.1 0.9
8613 1 0.1277 0.040749 0 0 1 1 0 20 1 1.1 0.9
8614 1 0.78497 0.26172 0 0 1 1 0 20 1 1.1 0.9
8615 1 0.3398 0.11467 0 0 1 1 0 20 1 1.1 0.9
8616 1 0.53468 0.1723 0 0 1 1 0 20 1 1.1 0.9
8617 1 0.35122 0.11339 0 0 1 1 0 20 1 1.1 0.9
8618 1 0.34892 0.11252 0 0 1 1 0 20 1 1.1 0.9
8619 1 0.17652 0.057773 0 0 1 1 0 20 1 1.1 0.9
8620 1 0.19869 0.065711 0 0 1 1 0 20 1 1.1 0.9
8621 1 0.1597 0.051765 0 0 1 1 0 20 1 1.1 0.9
8622 1 0.55071 0.17782 0 0 1 1 0 20 1 1.1 0.9
8623 1 0.45575 0.14978 0 0 1 1 0 20 1 1.1 0.9
8624 1 0.51827 0.1723 0 0 1 1 0 20 1 1.1 0.9
8625 1 0.19436 0.064014 0 0 1 1 0 20 1 1.1 0.9
8626 1 0.22957 0.07394 0 0 1 1 0 20 1 1.1 0.9
8627 1 0.25885 0.084153 0 0 1 1 0 20 1 1.1 0.9
8628 1 0.43028 0.1403 0 0 1 1 0 20 1 1.1 0.9
8629 1 0.2198 0.070733 0 0 1 1 0 20 1 1.1 0.9
8630 1 0.33191 0.10995 0 0 1 1 0 20 1 1.1 0.9
8631 1 0.18315 0.060133 0 0 1 1 0 20 1 1.1 0.9
8632 1 0.065446 0.020281 0 0 1 1 0 20 1 1.1 0.9
8633 1 0.20783 0.069 0 0 1 1 0 20 1 1.1 0.9
8634 1 0.51233 0.16976 0 0 1 1 0 20 1 1.1 0.9
8635 1 0.4921 0.16327 0 0 1 1 0 20 1 1.1 0.9
8636 1 0.53639 0.17277 0 0 1 1 0 20 1 1.1 0.9
8637 1 0.67603 0.22187 0 0 1 1 0 20 1 1.1 0.9
8638 1 0.29447 0.096802 0 0 1 1 0 20 1 1.1 0.9
8639 1 0.29092 0.095634 0 0 1 1 0 20 1 1.1 0.9
8640 1 0.39456 0.12814 0 0 1 1 0 20 1 1.1 0.9
8641 1 0.741 0.24446 0 0 1 1 0 20 1 1.1 0.9
8642 1 0.25018 0.081127 0 0 1 1 0 20 1 1.1 0.9
8643 1 0.1771 0.057836 0 0 1 1 0 20 1 1.1 0.9
8644 1 0.23036 0.074271 0 0 1 1 0 20 1 1.1 0.9
8645 1 0.45013 0.1483 0 0 1 1 0 20 1 1.1 0.9
8646 1 0.1711 0.055746 0 0 1 1 0 20 1 1.1 0.9
8647 1 0.24796 0.080543 0 0 1 1 0 20 1 1.1 0.9
8648 1 0.51708 0.17246 0 0 1 1 0 20 1 1.1 0.9
8649 1 0.26632 0.0867 0 0 1 1 0 20 1 1.1 0.9
8650 1 0.62506 0.20383 0 0 1 1 0 20 1 1.1 0.9
8651 1 0.31453 0.10409 0 0 1 1 0 20 1 1.1 0.9
8652 1 0.35565 0.11508 0 0 1 1 0 20 1 1.1 0.9
8653 1 0.12789 0.040879 0 0 1 1 0 20 1 1.1 0.9
8654 1 0.10649 0.033652 0 0 1 1 0 20 1 1.1 0.9
8655 1 0.41498 0.13604 0 0 1 1 0 20 1 1.1 0.9
8656 1 0.30566 0.10089 0 0 1 1 0 20 1 1.1 0.9
8657 1 0.83495 0.28035 0 0 1 1 0 20 1 1.1 0.9
8658 1 0.47805 0.15777 0 0 1 1 0 20 1 1.1 0.9
8659 1 0.28914 0.095214 0 0 1 1 0 20 1 1.1 0.9
8660 1 0.19378 0.064051 0 0 1 1 0 20 1 1.1 0.9
8661 1 0.27909 0.091533 0 0 1 1 0 20 1 1.1 0.9
8662 1 0.15617 0.050582 0 0 1 1 0 20 1 1.1 0.9
8663 1 0.27046 0.088414 0 0 1 1 0 20 1 1.1 0.9
8664 1 0.12344 0.039393 0 0 1 1 0 20 1 1.1 0.9
8665 1 0.32338 0.10718 0 0 1 1 0 20 1 1.1 0.9
8666 1 0.2383 0.077076 0 0 1 1 0 20 1 1.1 0.9
8667 1 0.77973 0.25857 0 0 1 1 0 20 1 1.1 0.9
8668 1 0.60242 0.19537 0 0 1 1 0 20 1 1.1 0.9
8669 1 0.6152 0.20162 0 0 1 1 0 20 1 1.1 0.9
8670 1 0.40359 0.13124 0 0 1 1 0 20 1 1.1 0.9
8671 1 0.28979 0.095504 0 0 1 1 0 20 1 1.1 0.9
8672 1 0.56756 0.18413 0 0 1 1 0 20 1 1.1 0.9
8673 1 0.16494 0.053751 0 0 1 1 0 20 1 1.1 0.9
8674 1 0.14717 0.047379 0 0 1 1 0 20 1 1.1 0.9
8675 1 0.27489 0.089736 0 0 1 1 0 20 1 1.1 0.9
8676 1 0.19656 0.06491 0 0 1 1 0 20 1 1.1 0.9
8677 1 0.41352 0.13492 0 0 1 1 0 20 1 1.1 0.9
8678 1 0.32935 0.10948 0 0 1 1 0 20 1 1.1 0.9
8679 1 0.2738 0.089328 0 0 1 1 0 20 1 1.1 0.9
8680 1 0.56963 0.18303 0 0 1 1 0 20 1 1.1 0.9
8681 1 0.47473 0.15662 0 0 1 1 0 20 1 1.1 0.9
8682 1 0.20142 0.066589 0 0 1 1 0 20 1 1.1 0.9
8683 1 0.14561 0.046883 0 0 1 1 0 20 1 1.1 0.9
8684 1 0.5494 0.17745 0 0 1 1 0 20 1 1.1 0.9
8685 1 0.60888 0.19876 0 0 1 1 0 20 1 1.1 0.9
8686 1 0.17915 0.058546 0 0 1 1 0 20 1 1.1 0.9
8687 1 0.13508 0.043429 0 0 1 1 0 20 1 1.1 0.9
8688 1 0.18786 0.061774 0 0 1 1 0 20 1 1.1 0.9
8689 1 0 0 0 0 1 1 0 20 1 1.1 0.9
8690 1 0.57893 0.18895 0 0 1 1 0 20 1 1.1 0.9
8691 1 0.31302 0.10346 0 0 1 1 0 20 1 1.1 0.9
8692 1 0.13453 0.043141 0 0 1 1 0 20 1 1.1 0.9
8693 1 0.42614 0.13994 0 0 1 1 0 20 1 1.1 0.9
8694 1 0.62783 0.20497 0 0 1 1 0 20 1 1.1 0.9
8695 1 0.44025 0.14414 0 0 1 1 0 20 1 1.1 0.9
8696 1 0.18974 0.062131 0 0 1 1 0 20 1 1.1 0.9
8697 1 0.22064 0.070794 0 0 1 1 0 20 1 1.1 0.9
8698 1 0.58124 0.18833 0 0 1 1 0 20 1 1.1 0.9
8699 1 0.12855 0.041091 0 0 1 1 0 20 1 1.1 0.9
8700 1 0.5444 0.17545 0 0 1 1 0 20 1 1.1 0.9
8701 1 0.37386 0.12076 0 0 1 1 0 20 1 1.1 0.9
8702 1 0.57074 0.18387 0 0 1 1 0 20 1 1.1 0.9
8703 1 0.14569 0.046936 0 0 1 1 0 20 1 1.1 0.9
8704 1 0.20335 0.067244 0 0 1 1 0 20 1 1.1 0.9
8705 1 0.45493 0.15053 0 0 1 1 0 20 1 1.1 0.9
8706 1 0.44444 0.1458 0 0 1 1 0 20 1 1.1 0.9
8707 1 0.32724 0.10865 0 0 1 1 0 20 1 1.1 0.9
8708 1 0.21528 0.069059 0 0 1 1 0 20 1 1.1 0.9
8709 1 0.57973 0.18766 0 0 1 1 0 20 1 1.1 0.9
8710 1 0.1709 0.055707 0 0 1 1 0 20 1 1.1 0.9
8711 1 0.20141 0.066705 0 0 1 1 0 20 1 1.1 0.9
8712 1 0.17662 0.057744 0 0 1 1 0 20 1 1.1 0.9
8713 1 0.66738 0.21828 0 0 1 1 0 20 1 1.1 0.9
8714 1 0.52111 0.17358 0 0 1 1 0 20 1 1.1 0.9
8715 1 0.30465 0.10109 0 0 1 1 0 20 1 1.1 0.9
8716 1 0.40763 0.1328 0 0 1 1 0 20 1 1.1 0.9
8717 1 0.27827 0.091298 0 0 1 1 0 20 1 1.1 0.9
8718 1 0.79837 0.26529 0 0 1 1 0 20 1 1.1 0.9
8719 1 0.38975 0.12672 0 0 1 1 0 20 1 1.1 0.9
8720 1 0.2087 0.066924 0 0 1 1 0 20 1 1.1 0.9
8721 1 0.18085 0.059557 0 0 1 1 0 20 1 1.1 0.9
8722 1 0.2022 0.066998 0 0 1 1 0 20 1 1.1 0.9
8723 1 0.27782 0.090756 0 0 1 1 0 20 1 1.1 0.9
8724 1 0.24956 0.080953 0 0 1 1 0 20 1 1.1 0.9
8725 1 0.28564 0.093568 0 0 1 1 0 20 1 1.1 0.9
8726 1 0.66481 0.21728 0 0 1 1 0 20 1 1.1 0.9
8727 1 0.12448 0.039692 0 0 1 1 0 20 1 1.1 0.9
8728 1 0.5196 0.17361 0 0 1 1 0 20 1 1.1 0.9
8729 1 0.249 0.080927 0 0 1 1 0 20 1 1.1 0.9
8730 1 0.28866 0.09447 0 0 1 1 0 20 1 1.1 0.9
8731 1 0.2269 0.073066 0 0 1 1 0 20 1 1.1 0.9
8732 1 0.52495 0.17488 0 0 1 1 0 20 1 1.1 0.9
8733 1 0.30818 0.10211 0 0 1 1 0 20 1 1.1 0.9
8734 1 0.74732 0.24809 0 0 1 1 0 20 1 1.1 0.9
8735 1 0.52047 0.17347 0 0 1 1 0 20 1 1.1 0.9
8736 1 0.17131 0.055741 0 0 1 1 0 20 1 1.1 0.9
8737 1 0.23765 0.076803 0 0 1 1 0 20 1 1.1 0.9
8738 1 0.14659 0.047322 0 0 1 1 0 20 1 1.1 0.9
8739 1 0.43647 0.14309 0 0 1 1 0 20 1 1.1 0.9
8740 1 0.69061 0.22685 0 0 1 1 0 20 1 1.1 0.9
8741 1 0.20195 0.066938 0 0 1 1 0 20 1 1.1 0.9
8742 1 0.2984 0.098471 0 0 1 1 0 20 1 1.1 0.9
8743 1 0.39764 0.12894 0 0 1 1 0 20 1 1.1 0.9
8744 1 0.091307 0.028672 0 0 1 1 0 20 1 1.1 0.9
8745 1 0.27373 0.089592 0 0 1 1 0 20 1 1.1 0.9
8746 1 0.27551 0.090006 0 0 1 1 0 20 1 1.1 0.9
8747 1 0.25867 0.083819 0 0 1 1 0 20 1 1.1 0.9
8748 1 0.35618 0.1146 0 0 1 1 0 20 1 1.1 0.9
8749 1 0.16436 0.053332 0 0 1 1 0 20 1 1.1 0.9
8750 1 0.20348 0.067743 0 0 1 1 0 20 1 1.1 0.9
8751 1 0.14865 0.048026 0 0 1 1 0 20 1 1.1 0.9
8752 1 0.8238 0.2727 0 0 1 1 0 20 1 1.1 0.9
8753 1 0.24828 0.080701 0 0 1 1 0 20 1 1.1 0.9
8754 1 0.20916 0.066959 0 0 1 1 0 20 1 1.1 0.9
8755 1 0.51739 0.17205 0 0 1 1 0 20 1 1.1 0.9
8756 1 0.51661 0.17052 0 0 1 1 0 20 1 1.1 0.9
8757 1 0.19417 0.064107 0 0 1 1 0 20 1 1.1 0.9
8758 1 0.19451 0.064147 0 0 1 1 0 20 1 1.1 0.9
8759 1 0.23744 0.07656 0 0 1 1 0 20 1 1.1 0.9
8760 1 0.18754 0.061765 0 0 1 1 0 20 1 1.1 0.9
8761 1 0.5516 0.17979 0 0 1 1 0 20 1 1.1 0.9
8762 1 0.18649 0.060982 0 0 1 1 0 20 1 1.1 0.9
8763 1 0.43342 0.14203 0 0 1 1 0 20 1 1.1 0.9
8764 1 0.083463 0.026115 0 0 1 1 0 20 1 1.1 0.9
8765 1 0.12692 0.040476 0 0 1 1 0 20 1 1.1 0.9
8766 1 0.52385 0.17494 0 0 1 1 0 20 1 1.1 0.9
8767 1 0.15626 0.05066 0 0 1 1 0 20 1 1.1 0.9
8768 1 0.32259 0.10654 0 0 1 1 0 20 1 1.1 0.9
8769 1 0.64894 0.21057 0 0 1 1 0 20 1 1.1 0.9
8770 1 0.79212 0.26034 0 0 1 1 0 20 1 1.1 0.9
8771 1 0.41905 0.1362 0 0 1 1 0 20 1 1.1 0.9
8772 1 0.21643 0.069406 0 0 1 1 0 20 1 1.1 0.9
8773 1 0.094788 0.029771 0 0 1 1 0 20 1 1.1 0.9
8774 1 0.26841 0.087431 0 0 1 1 0 20 1 1.1 0.9
8775 1 0.42096 0.1381 0 0 1 1 0 20 1 1.1 0.9
8776 1 0.29781 0.097822 0 0 1 1 0 20 1 1.1 0.9
8777 1 0.18995 0.062496 0 0 1 1 0 20 1 1.1 0.9
8778 1 0.21098 0.067595 0 0 1 1 0 20 1 1.1 0.9
8779 1 0.64671 0.2117 0 0 1 1 0 20 1 1.1 0.9
8780 1 0.24055 0.077675 0 0 1 1 0 20 1 1.1 0.9
8781 1 0.31959 0.10573 0 0 1 1 0 20 1 1.1 0.9
8782 1 0.10137 0.031891 0 0 1 1 0 20 1 1.1 0.9
8783 1 0.56118 0.1803 0 0 1 1 0 20 1 1.1 0.9
8784 1 0.10138 0.031986 0 0 1 1 0 20 1 1.1 0.9
8785 1 0 0 0 0 1 1 0 132 1 1.1 0.9
8786 1 0 0 0 0 1 1 0 132 1 1.1 0.9
8787 1 0 0 0 0 1 1 0 132 1 1.1 0.9
8788 1 0 0 0 0 1 1 0 132 1 1.1 0.9
];
%% generator data
% bus Pg Qg Qmax Qmin Vg mBase status Pmax Pmin Pc1 Pc2 Qc1min Qc1max Qc2min Qc2max ramp_agc ramp_10 ramp_30 ramp_q apf
mpc.gen = [
1 0 0 1000 -1000 1.0 0.1 1 1000 0 0 0 0 0 0 0 0 0 0 0 0];
%% branch data
%fbus tbus	r x b rA rB rC rat ang status angmin angmax
mpc.branch = [
8395 8396 3.8093e-05 7.7375e-06 0 5.5426 5.5426 5.5426 0 0 1 -360 360
8397 8396 6.6415e-05 1.3491e-05 0 5.5426 5.5426 5.5426 0 0 1 -360 360
8396 8398 8.9848e-05 1.825e-05 0 5.5426 5.5426 5.5426 0 0 1 -360 360
8399 8398 1.8169e-05 3.6908e-06 0 5.5426 5.5426 5.5426 0 0 1 -360 360
8400 7984 6.2315e-05 1.2658e-05 0 5.5426 5.5426 5.5426 0 0 1 -360 360
8401 8402 1.3633e-05 7.498e-06 0 10.392 10.392 10.392 0 0 1 -360 360
8398 8403 3.1263e-05 6.3502e-06 0 5.5426 5.5426 5.5426 0 0 1 -360 360
8404 8405 3.0835e-05 6.2632e-06 0 5.5426 5.5426 5.5426 0 0 1 -360 360
8406 8404 4.0335e-05 8.193e-06 0 5.5426 5.5426 5.5426 0 0 1 -360 360
8407 8403 2.9492e-05 5.991e-06 0 5.5426 5.5426 5.5426 0 0 1 -360 360
8408 8409 1.6917e-05 3.4365e-06 0 5.5426 5.5426 5.5426 0 0 1 -360 360
8410 8405 1.9443e-05 3.9495e-06 0 5.5426 5.5426 5.5426 0 0 1 -360 360
8411 8407 3.0602e-05 6.216e-06 0 5.5426 5.5426 5.5426 0 0 1 -360 360
8412 8401 3.145e-05 6.388e-06 0 5.5426 5.5426 5.5426 0 0 1 -360 360
8403 8413 4.943e-05 1.0041e-05 0 5.5426 5.5426 5.5426 0 0 1 -360 360
8402 7983 1.2128e-05 6.6705e-06 0 10.392 10.392 10.392 0 0 1 -360 360
8405 8414 1.7664e-05 3.588e-06 0 5.5426 5.5426 5.5426 0 0 1 -360 360
8413 8415 5.4715e-06 3.0095e-06 0 10.392 10.392 10.392 0 0 1 -360 360
8409 8406 4.3675e-05 8.8718e-06 0 5.5426 5.5426 5.5426 0 0 1 -360 360
8416 8413 4.9703e-05 1.0096e-05 0 5.5426 5.5426 5.5426 0 0 1 -360 360
8414 8417 3.6962e-05 7.508e-06 0 5.5426 5.5426 5.5426 0 0 1 -360 360
8418 8408 3.3135e-05 6.7305e-06 0 5.5426 5.5426 5.5426 0 0 1 -360 360
8419 8420 9.7692e-06 5.373e-06 0 10.392 10.392 10.392 0 0 1 -360 360
8421 8422 2.0426e-05 4.149e-06 0 5.5426 5.5426 5.5426 0 0 1 -360 360
8417 8422 2.4555e-05 4.9877e-06 0 5.5426 5.5426 5.5426 0 0 1 -360 360
8423 8421 2.9535e-05 5.9993e-06 0 5.5426 5.5426 5.5426 0 0 1 -360 360
8415 8419 7.0347e-06 3.8693e-06 0 10.392 10.392 10.392 0 0 1 -360 360
8424 7983 1.4308e-05 2.9065e-06 0 5.5426 5.5426 5.5426 0 0 1 -360 360
8425 7993 1.6849e-05 3.4225e-06 0 5.5426 5.5426 5.5426 0 0 1 -360 360
8426 8427 4.9995e-05 1.0156e-05 0 5.5426 5.5426 5.5426 0 0 1 -360 360
8428 8429 6.0028e-05 1.2193e-05 0 5.5426 5.5426 5.5426 0 0 1 -360 360
8422 8430 5.7722e-06 3.1748e-06 0 10.392 10.392 10.392 0 0 1 -360 360
8430 8431 8.0125e-06 4.4067e-06 0 10.392 10.392 10.392 0 0 1 -360 360
8432 8433 2.9373e-05 5.966e-06 0 5.5426 5.5426 5.5426 0 0 1 -360 360
8427 8434 2.299e-05 4.6697e-06 0 5.5426 5.5426 5.5426 0 0 1 -360 360
8420 8429 7.7308e-06 4.252e-06 0 10.392 10.392 10.392 0 0 1 -360 360
8435 8423 1.8485e-05 3.7547e-06 0 5.5426 5.5426 5.5426 0 0 1 -360 360
8436 8437 2.9295e-05 5.9505e-06 0 5.5426 5.5426 5.5426 0 0 1 -360 360
8438 7993 1.4215e-05 2.8875e-06 0 5.5426 5.5426 5.5426 0 0 1 -360 360
8439 8437 1.7923e-05 3.6405e-06 0 5.5426 5.5426 5.5426 0 0 1 -360 360
8433 8440 3.6743e-05 7.4633e-06 0 5.5426 5.5426 5.5426 0 0 1 -360 360
8437 8004 2.5998e-05 5.281e-06 0 5.5426 5.5426 5.5426 0 0 1 -360 360
8440 8441 2.7622e-05 5.6107e-06 0 5.5426 5.5426 5.5426 0 0 1 -360 360
8442 8443 2.6375e-05 5.3573e-06 0 5.5426 5.5426 5.5426 0 0 1 -360 360
8444 8007 5.149e-05 1.0459e-05 0 5.5426 5.5426 5.5426 0 0 1 -360 360
8445 8420 1.4758e-05 2.9977e-06 0 5.5426 5.5426 5.5426 0 0 1 -360 360
8441 8446 1.9408e-05 3.9423e-06 0 5.5426 5.5426 5.5426 0 0 1 -360 360
8447 8442 3.191e-05 6.4818e-06 0 5.5426 5.5426 5.5426 0 0 1 -360 360
8443 8448 1.3926e-05 7.6592e-06 0 10.392 10.392 10.392 0 0 1 -360 360
8449 8443 2.7865e-05 5.66e-06 0 5.5426 5.5426 5.5426 0 0 1 -360 360
8434 8450 2.1138e-05 2.7177e-05 0 17.84 17.84 17.84 0 0 1 -360 360
8451 8434 2.3085e-06 2.968e-06 0 17.84 17.84 17.84 0 0 1 -360 360
8446 8452 1.3948e-05 7.6715e-06 0 10.392 10.392 10.392 0 0 1 -360 360
8431 8004 3.4978e-06 1.9237e-06 0 10.392 10.392 10.392 0 0 1 -360 360
8453 8436 2.1023e-05 4.2703e-06 0 5.5426 5.5426 5.5426 0 0 1 -360 360
8454 8455 4.026e-05 8.1777e-06 0 5.5426 5.5426 5.5426 0 0 1 -360 360
8429 7981 4.638e-06 2.551e-06 0 10.392 10.392 10.392 0 0 1 -360 360
8456 8429 6.4955e-05 1.3194e-05 0 5.5426 5.5426 5.5426 0 0 1 -360 360
8457 7981 2.5247e-05 5.1283e-06 0 5.5426 5.5426 5.5426 0 0 1 -360 360
8458 8004 1.7403e-05 3.535e-06 0 5.5426 5.5426 5.5426 0 0 1 -360 360
8459 8443 1.5825e-05 3.2143e-06 0 5.5426 5.5426 5.5426 0 0 1 -360 360
8460 8453 1.745e-05 3.5445e-06 0 5.5426 5.5426 5.5426 0 0 1 -360 360
8461 8462 1.3318e-05 1.1098e-05 0 13.856 13.856 13.856 0 0 1 -360 360
8463 8464 2.5847e-05 5.2505e-06 0 5.5426 5.5426 5.5426 0 0 1 -360 360
8465 8459 2.2779e-05 4.627e-06 0 5.5426 5.5426 5.5426 0 0 1 -360 360
8466 8452 2.305e-05 4.682e-06 0 5.5426 5.5426 5.5426 0 0 1 -360 360
8464 8467 3.542e-05 7.1948e-06 0 5.5426 5.5426 5.5426 0 0 1 -360 360
8468 8469 3.4363e-05 6.9798e-06 0 5.5426 5.5426 5.5426 0 0 1 -360 360
8455 8470 6.0525e-05 1.2295e-05 0 5.5426 5.5426 5.5426 0 0 1 -360 360
8452 8471 1.6605e-05 9.1327e-06 0 10.392 10.392 10.392 0 0 1 -360 360
8472 8465 4.0593e-05 8.245e-06 0 5.5426 5.5426 5.5426 0 0 1 -360 360
8473 8474 3.2558e-05 6.613e-06 0 5.5426 5.5426 5.5426 0 0 1 -360 360
8448 8475 9.8672e-06 5.427e-06 0 10.392 10.392 10.392 0 0 1 -360 360
8476 8477 2.2691e-05 4.6093e-06 0 5.5426 5.5426 5.5426 0 0 1 -360 360
8478 8479 3.146e-05 6.3905e-06 0 5.5426 5.5426 5.5426 0 0 1 -360 360
8469 8474 2.1309e-05 4.3282e-06 0 5.5426 5.5426 5.5426 0 0 1 -360 360
8474 8480 2.6137e-05 5.309e-06 0 5.5426 5.5426 5.5426 0 0 1 -360 360
8475 8479 5.8178e-06 3.1998e-06 0 10.392 10.392 10.392 0 0 1 -360 360
8481 8482 1.6959e-05 3.4447e-06 0 5.5426 5.5426 5.5426 0 0 1 -360 360
8467 8478 1.6612e-05 3.3742e-06 0 5.5426 5.5426 5.5426 0 0 1 -360 360
8483 8476 3.7135e-05 7.543e-06 0 5.5426 5.5426 5.5426 0 0 1 -360 360
8479 8484 8.4283e-06 4.6355e-06 0 10.392 10.392 10.392 0 0 1 -360 360
8477 8485 3.2505e-05 6.6027e-06 0 5.5426 5.5426 5.5426 0 0 1 -360 360
8462 8486 1.8224e-05 1.5187e-05 0 13.856 13.856 13.856 0 0 1 -360 360
8487 8488 2.5495e-05 5.1788e-06 0 5.5426 5.5426 5.5426 0 0 1 -360 360
8489 8485 1.564e-05 3.1768e-06 0 5.5426 5.5426 5.5426 0 0 1 -360 360
8490 8491 3.5243e-05 7.1587e-06 0 5.5426 5.5426 5.5426 0 0 1 -360 360
8492 8485 3.066e-05 6.2277e-06 0 5.5426 5.5426 5.5426 0 0 1 -360 360
8470 8493 2.9345e-05 5.9607e-06 0 5.5426 5.5426 5.5426 0 0 1 -360 360
8494 8495 1.4268e-05 2.8983e-06 0 5.5426 5.5426 5.5426 0 0 1 -360 360
8471 8496 1.1529e-05 6.3408e-06 0 10.392 10.392 10.392 0 0 1 -360 360
8484 8497 8.532e-06 4.6928e-06 0 10.392 10.392 10.392 0 0 1 -360 360
8485 8002 1.5188e-05 3.085e-06 0 5.5426 5.5426 5.5426 0 0 1 -360 360
8480 8498 4.2955e-05 8.7252e-06 0 5.5426 5.5426 5.5426 0 0 1 -360 360
8499 8500 2.2083e-05 4.4855e-06 0 5.5426 5.5426 5.5426 0 0 1 -360 360
8501 8499 3.1085e-05 6.314e-06 0 5.5426 5.5426 5.5426 0 0 1 -360 360
8497 8502 7.4352e-06 4.0895e-06 0 10.392 10.392 10.392 0 0 1 -360 360
8491 8503 3.0455e-05 6.1863e-06 0 5.5426 5.5426 5.5426 0 0 1 -360 360
8504 8505 1.3404e-05 2.7227e-06 0 5.5426 5.5426 5.5426 0 0 1 -360 360
8493 8495 5.8058e-06 4.838e-06 0 13.856 13.856 13.856 0 0 1 -360 360
8496 8493 9.2998e-06 7.7497e-06 0 13.856 13.856 13.856 0 0 1 -360 360
8482 8491 3.6005e-05 7.3138e-06 0 5.5426 5.5426 5.5426 0 0 1 -360 360
8488 8506 2.741e-05 5.5678e-06 0 5.5426 5.5426 5.5426 0 0 1 -360 360
8500 8496 2.2748e-05 4.6205e-06 0 5.5426 5.5426 5.5426 0 0 1 -360 360
8507 8001 2.6073e-07 3.3522e-07 0 17.84 17.84 17.84 0 0 1 -360 360
8508 8489 2.6925e-05 5.4693e-06 0 5.5426 5.5426 5.5426 0 0 1 -360 360
8503 8509 3.0587e-05 6.213e-06 0 5.5426 5.5426 5.5426 0 0 1 -360 360
8502 8510 1.1404e-05 6.2723e-06 0 10.392 10.392 10.392 0 0 1 -360 360
8511 8508 3.5602e-05 7.232e-06 0 5.5426 5.5426 5.5426 0 0 1 -360 360
8506 8001 6.1305e-06 1.2453e-06 0 5.5426 5.5426 5.5426 0 0 1 -360 360
8512 8513 5.5727e-05 1.132e-05 0 5.5426 5.5426 5.5426 0 0 1 -360 360
8495 8507 4.88e-06 4.0667e-06 0 13.856 13.856 13.856 0 0 1 -360 360
8514 8515 3.8798e-06 3.233e-06 0 13.856 13.856 13.856 0 0 1 -360 360
8510 8514 4.2598e-06 3.5498e-06 0 13.856 13.856 13.856 0 0 1 -360 360
8509 8516 6.7235e-06 3.698e-06 0 10.392 10.392 10.392 0 0 1 -360 360
8517 8518 3.169e-05 6.437e-06 0 5.5426 5.5426 5.5426 0 0 1 -360 360
8498 8519 7.7715e-06 4.2742e-06 0 10.392 10.392 10.392 0 0 1 -360 360
8520 8450 9.001e-09 1.001e-08 0 17.84 17.84 17.84 0 0 1 -360 360
8519 7992 6.3195e-06 3.4758e-06 0 10.392 10.392 10.392 0 0 1 -360 360
8521 8522 2.9132e-05 5.9175e-06 0 5.5426 5.5426 5.5426 0 0 1 -360 360
8523 7980 7.5592e-06 1.5355e-06 0 5.5426 5.5426 5.5426 0 0 1 -360 360
8516 8524 7.4607e-06 4.1033e-06 0 10.392 10.392 10.392 0 0 1 -360 360
8515 8520 4.4897e-06 5.7725e-06 0 17.84 17.84 17.84 0 0 1 -360 360
8525 8526 5.1795e-06 4.3163e-06 0 13.856 13.856 13.856 0 0 1 -360 360
8527 8493 5.806e-05 1.1794e-05 0 5.5426 5.5426 5.5426 0 0 1 -360 360
8518 8520 1.2546e-05 2.5485e-06 0 5.5426 5.5426 5.5426 0 0 1 -360 360
8522 8524 3.287e-05 6.6768e-06 0 5.5426 5.5426 5.5426 0 0 1 -360 360
8524 8486 9.001e-09 1.001e-08 0 13.856 13.856 13.856 0 0 1 -360 360
8528 8529 6.3635e-06 3.5e-06 0 10.392 10.392 10.392 0 0 1 -360 360
8530 8517 2.381e-05 4.8365e-06 0 5.5426 5.5426 5.5426 0 0 1 -360 360
8531 8510 1.7559e-05 3.5668e-06 0 5.5426 5.5426 5.5426 0 0 1 -360 360
8532 8525 1.2484e-05 2.5357e-06 0 5.5426 5.5426 5.5426 0 0 1 -360 360
8533 8527 8.176e-06 1.6608e-06 0 5.5426 5.5426 5.5426 0 0 1 -360 360
8526 8486 3.5665e-06 4.5855e-06 0 17.84 17.84 17.84 0 0 1 -360 360
8505 8531 2.4049e-05 4.885e-06 0 5.5426 5.5426 5.5426 0 0 1 -360 360
8534 7991 1.3788e-05 2.8007e-06 0 5.5426 5.5426 5.5426 0 0 1 -360 360
8535 8536 2.2662e-05 4.6033e-06 0 5.5426 5.5426 5.5426 0 0 1 -360 360
8537 8524 2.2712e-05 4.6135e-06 0 5.5426 5.5426 5.5426 0 0 1 -360 360
8538 8528 2.3445e-05 4.7623e-06 0 5.5426 5.5426 5.5426 0 0 1 -360 360
8539 8540 3.2757e-05 6.6535e-06 0 5.5426 5.5426 5.5426 0 0 1 -360 360
8540 8541 1.3693e-05 7.531e-06 0 10.392 10.392 10.392 0 0 1 -360 360
8542 8505 2.0669e-05 4.1983e-06 0 5.5426 5.5426 5.5426 0 0 1 -360 360
8543 8509 8.5898e-05 1.7448e-05 0 5.5426 5.5426 5.5426 0 0 1 -360 360
8544 8543 3.3408e-05 6.7858e-06 0 5.5426 5.5426 5.5426 0 0 1 -360 360
8545 8539 3.8097e-05 7.7383e-06 0 5.5426 5.5426 5.5426 0 0 1 -360 360
8546 8547 1.8813e-05 3.8213e-06 0 5.5426 5.5426 5.5426 0 0 1 -360 360
8529 8548 5.2225e-06 2.8725e-06 0 10.392 10.392 10.392 0 0 1 -360 360
8549 8550 2.4349e-05 4.946e-06 0 5.5426 5.5426 5.5426 0 0 1 -360 360
8551 8538 2.3719e-05 4.818e-06 0 5.5426 5.5426 5.5426 0 0 1 -360 360
8536 8450 8.5243e-06 7.1035e-06 0 13.856 13.856 13.856 0 0 1 -360 360
8552 8545 3.235e-05 6.5713e-06 0 5.5426 5.5426 5.5426 0 0 1 -360 360
8553 8535 2.0794e-05 4.2238e-06 0 5.5426 5.5426 5.5426 0 0 1 -360 360
8554 8513 2.4621e-06 2.0517e-06 0 13.856 13.856 13.856 0 0 1 -360 360
8555 7999 1.4398e-05 2.9245e-06 0 5.5426 5.5426 5.5426 0 0 1 -360 360
8513 8450 1.7468e-05 1.4557e-05 0 13.856 13.856 13.856 0 0 1 -360 360
8550 8552 1.6017e-05 3.2535e-06 0 5.5426 5.5426 5.5426 0 0 1 -360 360
8556 8540 3.2852e-05 6.673e-06 0 5.5426 5.5426 5.5426 0 0 1 -360 360
8557 8551 2.5462e-05 5.172e-06 0 5.5426 5.5426 5.5426 0 0 1 -360 360
8548 8486 2.2299e-05 1.2264e-05 0 10.392 10.392 10.392 0 0 1 -360 360
8558 8559 2.3679e-05 4.81e-06 0 5.5426 5.5426 5.5426 0 0 1 -360 360
8560 8552 2.1731e-05 4.414e-06 0 5.5426 5.5426 5.5426 0 0 1 -360 360
8561 8562 4.4352e-05 9.0093e-06 0 5.5426 5.5426 5.5426 0 0 1 -360 360
8547 8526 3.228e-05 6.5568e-06 0 5.5426 5.5426 5.5426 0 0 1 -360 360
8563 8556 2.581e-05 5.2427e-06 0 5.5426 5.5426 5.5426 0 0 1 -360 360
8564 8550 2.8118e-05 5.7115e-06 0 5.5426 5.5426 5.5426 0 0 1 -360 360
8565 8554 5.2383e-06 4.3653e-06 0 13.856 13.856 13.856 0 0 1 -360 360
8566 8543 4.4537e-05 9.047e-06 0 5.5426 5.5426 5.5426 0 0 1 -360 360
8567 8515 2.3796e-05 4.8335e-06 0 5.5426 5.5426 5.5426 0 0 1 -360 360
8568 7999 3.8427e-06 2.1136e-06 0 10.392 10.392 10.392 0 0 1 -360 360
8541 8569 1.183e-05 6.5065e-06 0 10.392 10.392 10.392 0 0 1 -360 360
8570 8538 2.3817e-05 4.8378e-06 0 5.5426 5.5426 5.5426 0 0 1 -360 360
8571 8547 2.6985e-05 5.4813e-06 0 5.5426 5.5426 5.5426 0 0 1 -360 360
8562 8572 2.676e-05 5.4357e-06 0 5.5426 5.5426 5.5426 0 0 1 -360 360
8573 7979 5.0792e-06 1.0317e-06 0 5.5426 5.5426 5.5426 0 0 1 -360 360
8574 7998 2.681e-05 5.4458e-06 0 5.5426 5.5426 5.5426 0 0 1 -360 360
8559 8575 1.4948e-05 3.0365e-06 0 5.5426 5.5426 5.5426 0 0 1 -360 360
8576 8546 2.5628e-05 5.2058e-06 0 5.5426 5.5426 5.5426 0 0 1 -360 360
8577 8450 1.4652e-05 1.221e-05 0 13.856 13.856 13.856 0 0 1 -360 360
8569 8565 6.8348e-06 3.759e-06 0 10.392 10.392 10.392 0 0 1 -360 360
8575 8577 5.4327e-06 2.988e-06 0 10.392 10.392 10.392 0 0 1 -360 360
8578 8562 9.0388e-06 1.836e-06 0 5.5426 5.5426 5.5426 0 0 1 -360 360
8579 8580 2.5385e-05 5.1563e-06 0 5.5426 5.5426 5.5426 0 0 1 -360 360
8581 8570 1.4577e-05 2.9608e-06 0 5.5426 5.5426 5.5426 0 0 1 -360 360
8582 7978 3.1485e-05 6.3953e-06 0 5.5426 5.5426 5.5426 0 0 1 -360 360
8583 8573 1.8191e-05 3.695e-06 0 5.5426 5.5426 5.5426 0 0 1 -360 360
8580 8583 2.5335e-05 5.1463e-06 0 5.5426 5.5426 5.5426 0 0 1 -360 360
8584 8566 2.65e-05 5.3825e-06 0 5.5426 5.5426 5.5426 0 0 1 -360 360
8585 8563 3.5925e-05 7.2975e-06 0 5.5426 5.5426 5.5426 0 0 1 -360 360
8586 8569 3.3517e-05 6.808e-06 0 5.5426 5.5426 5.5426 0 0 1 -360 360
8587 7998 1.7739e-05 3.6033e-06 0 5.5426 5.5426 5.5426 0 0 1 -360 360
8588 8568 2.6595e-05 5.402e-06 0 5.5426 5.5426 5.5426 0 0 1 -360 360
8589 8590 2.1054e-05 4.2765e-06 0 5.5426 5.5426 5.5426 0 0 1 -360 360
8591 8592 2.8803e-05 5.8505e-06 0 5.5426 5.5426 5.5426 0 0 1 -360 360
8593 8594 3.2585e-05 6.6187e-06 0 5.5426 5.5426 5.5426 0 0 1 -360 360
8595 8596 4.164e-05 8.458e-06 0 5.5426 5.5426 5.5426 0 0 1 -360 360
8594 8597 3.5445e-05 7.1998e-06 0 5.5426 5.5426 5.5426 0 0 1 -360 360
8598 8576 2.8895e-05 5.8692e-06 0 5.5426 5.5426 5.5426 0 0 1 -360 360
8599 8575 6.2898e-06 3.4595e-06 0 10.392 10.392 10.392 0 0 1 -360 360
8600 8601 2.7948e-05 5.677e-06 0 5.5426 5.5426 5.5426 0 0 1 -360 360
8602 8572 1.682e-05 3.4165e-06 0 5.5426 5.5426 5.5426 0 0 1 -360 360
8603 7998 2.9277e-05 5.9468e-06 0 5.5426 5.5426 5.5426 0 0 1 -360 360
8604 8486 1.3687e-05 1.7597e-05 0 17.84 17.84 17.84 0 0 1 -360 360
8605 8582 3.4475e-05 7.0025e-06 0 5.5426 5.5426 5.5426 0 0 1 -360 360
8606 8585 4.0615e-05 8.2498e-06 0 5.5426 5.5426 5.5426 0 0 1 -360 360
8607 8586 2.3843e-05 4.843e-06 0 5.5426 5.5426 5.5426 0 0 1 -360 360
8608 8589 2.1339e-05 4.3345e-06 0 5.5426 5.5426 5.5426 0 0 1 -360 360
8609 8599 6.1052e-06 3.358e-06 0 10.392 10.392 10.392 0 0 1 -360 360
8590 8604 2.4409e-06 3.1383e-06 0 17.84 17.84 17.84 0 0 1 -360 360
8572 8584 3.4025e-05 6.9113e-06 0 5.5426 5.5426 5.5426 0 0 1 -360 360
8597 8610 3.221e-05 6.5428e-06 0 5.5426 5.5426 5.5426 0 0 1 -360 360
8611 8596 4.8968e-06 4.0805e-06 0 13.856 13.856 13.856 0 0 1 -360 360
8612 8609 5.7683e-06 3.1725e-06 0 10.392 10.392 10.392 0 0 1 -360 360
8613 8450 1.3978e-05 1.7971e-05 0 17.84 17.84 17.84 0 0 1 -360 360
8614 8611 4.021e-05 8.1677e-06 0 5.5426 5.5426 5.5426 0 0 1 -360 360
8615 8603 3.6788e-05 7.4727e-06 0 5.5426 5.5426 5.5426 0 0 1 -360 360
8616 7975 3.8817e-05 7.8845e-06 0 5.5426 5.5426 5.5426 0 0 1 -360 360
8617 8618 1.961e-05 3.9833e-06 0 5.5426 5.5426 5.5426 0 0 1 -360 360
8619 8620 2.0298e-05 4.1232e-06 0 5.5426 5.5426 5.5426 0 0 1 -360 360
8621 8609 2.2471e-05 4.5645e-06 0 5.5426 5.5426 5.5426 0 0 1 -360 360
8601 7976 3.0002e-05 6.0943e-06 0 5.5426 5.5426 5.5426 0 0 1 -360 360
8622 8607 3.3582e-05 6.8218e-06 0 5.5426 5.5426 5.5426 0 0 1 -360 360
8623 8617 2.7833e-05 5.6537e-06 0 5.5426 5.5426 5.5426 0 0 1 -360 360
8596 8486 8.521e-06 1.0956e-05 0 17.84 17.84 17.84 0 0 1 -360 360
8620 8590 2.538e-06 2.115e-06 0 13.856 13.856 13.856 0 0 1 -360 360
8624 8622 1.9944e-05 4.0513e-06 0 5.5426 5.5426 5.5426 0 0 1 -360 360
8625 8597 2.6607e-05 5.4045e-06 0 5.5426 5.5426 5.5426 0 0 1 -360 360
8592 8613 1.8426e-05 3.7427e-06 0 5.5426 5.5426 5.5426 0 0 1 -360 360
8626 8610 2.1441e-05 4.3553e-06 0 5.5426 5.5426 5.5426 0 0 1 -360 360
8627 8605 2.3399e-05 4.753e-06 0 5.5426 5.5426 5.5426 0 0 1 -360 360
8628 8629 2.5165e-05 5.1115e-06 0 5.5426 5.5426 5.5426 0 0 1 -360 360
8618 8620 7.3188e-06 4.0253e-06 0 10.392 10.392 10.392 0 0 1 -360 360
8630 8613 2.7743e-06 3.5668e-06 0 17.84 17.84 17.84 0 0 1 -360 360
8631 8627 1.1384e-05 2.3124e-06 0 5.5426 5.5426 5.5426 0 0 1 -360 360
8632 8633 3.3173e-05 6.7383e-06 0 5.5426 5.5426 5.5426 0 0 1 -360 360
8633 8618 8.0948e-06 4.452e-06 0 10.392 10.392 10.392 0 0 1 -360 360
8634 7989 8.9735e-06 1.8228e-06 0 5.5426 5.5426 5.5426 0 0 1 -360 360
8635 7976 4.3857e-05 8.9085e-06 0 5.5426 5.5426 5.5426 0 0 1 -360 360
8636 7976 9.0208e-06 1.8323e-06 0 5.5426 5.5426 5.5426 0 0 1 -360 360
8637 8638 2.2854e-05 4.642e-06 0 5.5426 5.5426 5.5426 0 0 1 -360 360
8639 8640 3.079e-05 6.254e-06 0 5.5426 5.5426 5.5426 0 0 1 -360 360
8641 8619 2.0766e-05 4.218e-06 0 5.5426 5.5426 5.5426 0 0 1 -360 360
8642 8609 2.6348e-05 5.3518e-06 0 5.5426 5.5426 5.5426 0 0 1 -360 360
8643 7988 1.3409e-06 2.7237e-07 0 5.5426 5.5426 5.5426 0 0 1 -360 360
8629 7996 2.7345e-05 5.5545e-06 0 5.5426 5.5426 5.5426 0 0 1 -360 360
8644 8641 1.8595e-05 3.777e-06 0 5.5426 5.5426 5.5426 0 0 1 -360 360
8645 8610 2.5875e-05 5.2557e-06 0 5.5426 5.5426 5.5426 0 0 1 -360 360
8638 8646 1.7964e-05 3.649e-06 0 5.5426 5.5426 5.5426 0 0 1 -360 360
8646 8647 3.3158e-06 2.763e-06 0 13.856 13.856 13.856 0 0 1 -360 360
8610 8648 3.104e-05 6.3048e-06 0 5.5426 5.5426 5.5426 0 0 1 -360 360
8649 7989 2.0223e-05 4.1077e-06 0 5.5426 5.5426 5.5426 0 0 1 -360 360
8650 8633 3.469e-05 7.0462e-06 0 5.5426 5.5426 5.5426 0 0 1 -360 360
8651 7974 1.9644e-05 3.9902e-06 0 5.5426 5.5426 5.5426 0 0 1 -360 360
8652 8653 1.4676e-05 2.981e-06 0 5.5426 5.5426 5.5426 0 0 1 -360 360
8647 8630 2.0839e-06 2.6792e-06 0 17.84 17.84 17.84 0 0 1 -360 360
8654 8644 2.4266e-05 4.929e-06 0 5.5426 5.5426 5.5426 0 0 1 -360 360
8655 8656 1.4202e-05 2.8848e-06 0 5.5426 5.5426 5.5426 0 0 1 -360 360
8640 7973 3.0773e-06 6.2508e-07 0 5.5426 5.5426 5.5426 0 0 1 -360 360
8656 8647 1.4652e-05 2.9763e-06 0 5.5426 5.5426 5.5426 0 0 1 -360 360
8657 8596 2.7683e-05 1.5225e-05 0 10.392 10.392 10.392 0 0 1 -360 360
8653 8658 1.1128e-05 2.2604e-06 0 5.5426 5.5426 5.5426 0 0 1 -360 360
8659 8635 0.00010766 2.1868e-05 0 5.5426 5.5426 5.5426 0 0 1 -360 360
8660 8661 1.8102e-05 3.677e-06 0 5.5426 5.5426 5.5426 0 0 1 -360 360
8662 8663 1.768e-05 3.5913e-06 0 5.5426 5.5426 5.5426 0 0 1 -360 360
8648 8664 1.0419e-05 5.7305e-06 0 10.392 10.392 10.392 0 0 1 -360 360
8665 8646 1.9018e-05 3.863e-06 0 5.5426 5.5426 5.5426 0 0 1 -360 360
8666 8654 3.639e-05 7.3918e-06 0 5.5426 5.5426 5.5426 0 0 1 -360 360
8667 8666 3.4147e-05 6.9362e-06 0 5.5426 5.5426 5.5426 0 0 1 -360 360
8668 7972 5.979e-06 1.2145e-06 0 5.5426 5.5426 5.5426 0 0 1 -360 360
8669 8649 2.889e-05 5.8683e-06 0 5.5426 5.5426 5.5426 0 0 1 -360 360
8658 8670 2.2301e-05 4.53e-06 0 5.5426 5.5426 5.5426 0 0 1 -360 360
8671 8657 3.698e-05 7.5117e-06 0 5.5426 5.5426 5.5426 0 0 1 -360 360
8670 8672 1.105e-05 6.0775e-06 0 10.392 10.392 10.392 0 0 1 -360 360
8663 8665 1.8263e-05 3.7097e-06 0 5.5426 5.5426 5.5426 0 0 1 -360 360
8661 8670 2.0678e-05 4.2003e-06 0 5.5426 5.5426 5.5426 0 0 1 -360 360
8673 8658 3.5167e-05 7.1432e-06 0 5.5426 5.5426 5.5426 0 0 1 -360 360
8674 8670 2.8828e-05 5.8555e-06 0 5.5426 5.5426 5.5426 0 0 1 -360 360
8675 8676 3.326e-05 6.756e-06 0 5.5426 5.5426 5.5426 0 0 1 -360 360
8677 8657 3.366e-05 6.8372e-06 0 5.5426 5.5426 5.5426 0 0 1 -360 360
8678 8677 2.6205e-05 5.3228e-06 0 5.5426 5.5426 5.5426 0 0 1 -360 360
8679 8648 1.856e-05 3.77e-06 0 5.5426 5.5426 5.5426 0 0 1 -360 360
8664 8680 9.6925e-06 5.331e-06 0 10.392 10.392 10.392 0 0 1 -360 360
8681 8682 2.4189e-05 4.9132e-06 0 5.5426 5.5426 5.5426 0 0 1 -360 360
8683 8667 3.7465e-05 7.61e-06 0 5.5426 5.5426 5.5426 0 0 1 -360 360
8684 8678 2.4596e-05 4.996e-06 0 5.5426 5.5426 5.5426 0 0 1 -360 360
8672 8685 8.3725e-06 4.605e-06 0 10.392 10.392 10.392 0 0 1 -360 360
8686 8676 8.1965e-06 4.508e-06 0 10.392 10.392 10.392 0 0 1 -360 360
8687 8656 4.5268e-05 9.1952e-06 0 5.5426 5.5426 5.5426 0 0 1 -360 360
8682 8674 1.7644e-05 3.584e-06 0 5.5426 5.5426 5.5426 0 0 1 -360 360
8688 8679 2.2952e-05 4.662e-06 0 5.5426 5.5426 5.5426 0 0 1 -360 360
8680 8689 3.6258e-05 3.0215e-05 0 13.856 13.856 13.856 0 0 1 -360 360
8690 8691 6.5625e-06 5.4687e-06 0 13.856 13.856 13.856 0 0 1 -360 360
8692 8670 1.9913e-05 4.0447e-06 0 5.5426 5.5426 5.5426 0 0 1 -360 360
8676 8690 7.6745e-06 6.3955e-06 0 13.856 13.856 13.856 0 0 1 -360 360
8693 8694 2.2418e-05 4.5538e-06 0 5.5426 5.5426 5.5426 0 0 1 -360 360
8695 7995 1.9731e-05 4.008e-06 0 5.5426 5.5426 5.5426 0 0 1 -360 360
8696 8697 2.3043e-05 4.6808e-06 0 5.5426 5.5426 5.5426 0 0 1 -360 360
8698 8664 2.4144e-05 4.9042e-06 0 5.5426 5.5426 5.5426 0 0 1 -360 360
8699 8700 3.3005e-05 6.7043e-06 0 5.5426 5.5426 5.5426 0 0 1 -360 360
8697 8701 5.6608e-05 1.1498e-05 0 5.5426 5.5426 5.5426 0 0 1 -360 360
8685 8686 8.9495e-06 4.9223e-06 0 10.392 10.392 10.392 0 0 1 -360 360
8702 8676 3.5717e-05 7.255e-06 0 5.5426 5.5426 5.5426 0 0 1 -360 360
8703 8704 2.4392e-05 4.9545e-06 0 5.5426 5.5426 5.5426 0 0 1 -360 360
8701 7970 2.3595e-05 4.7928e-06 0 5.5426 5.5426 5.5426 0 0 1 -360 360
8705 8700 2.3344e-05 4.7418e-06 0 5.5426 5.5426 5.5426 0 0 1 -360 360
8706 8671 5.6915e-05 1.1561e-05 0 5.5426 5.5426 5.5426 0 0 1 -360 360
8707 8691 3.327e-05 6.758e-06 0 5.5426 5.5426 5.5426 0 0 1 -360 360
8694 8707 2.5315e-05 5.1418e-06 0 5.5426 5.5426 5.5426 0 0 1 -360 360
8691 8708 5.9827e-06 7.692e-06 0 17.84 17.84 17.84 0 0 1 -360 360
8709 8681 3.686e-05 7.487e-06 0 5.5426 5.5426 5.5426 0 0 1 -360 360
8704 8710 2.1357e-05 4.338e-06 0 5.5426 5.5426 5.5426 0 0 1 -360 360
8710 8694 2.879e-05 5.848e-06 0 5.5426 5.5426 5.5426 0 0 1 -360 360
8711 7987 2.1632e-06 4.394e-07 0 5.5426 5.5426 5.5426 0 0 1 -360 360
8712 7970 2.1596e-05 4.3868e-06 0 5.5426 5.5426 5.5426 0 0 1 -360 360
8713 8714 3.8255e-05 7.7703e-06 0 5.5426 5.5426 5.5426 0 0 1 -360 360
8700 8713 3.6613e-05 7.4368e-06 0 5.5426 5.5426 5.5426 0 0 1 -360 360
8715 8702 3.8242e-05 7.7678e-06 0 5.5426 5.5426 5.5426 0 0 1 -360 360
8716 8717 3.0373e-05 6.1693e-06 0 5.5426 5.5426 5.5426 0 0 1 -360 360
8718 7971 3.8115e-06 2.0963e-06 0 10.392 10.392 10.392 0 0 1 -360 360
8719 8720 1.5311e-05 3.11e-06 0 5.5426 5.5426 5.5426 0 0 1 -360 360
8721 8722 1.9723e-05 4.0063e-06 0 5.5426 5.5426 5.5426 0 0 1 -360 360
8723 8718 7.1907e-06 3.955e-06 0 10.392 10.392 10.392 0 0 1 -360 360
8724 8719 2.3884e-05 4.8515e-06 0 5.5426 5.5426 5.5426 0 0 1 -360 360
8725 8724 1.5458e-05 3.1397e-06 0 5.5426 5.5426 5.5426 0 0 1 -360 360
8726 7968 2.943e-05 5.978e-06 0 5.5426 5.5426 5.5426 0 0 1 -360 360
8727 7968 1.5356e-05 3.1192e-06 0 5.5426 5.5426 5.5426 0 0 1 -360 360
8728 8710 3.1483e-05 6.3948e-06 0 5.5426 5.5426 5.5426 0 0 1 -360 360
8722 8729 1.7574e-05 3.5698e-06 0 5.5426 5.5426 5.5426 0 0 1 -360 360
8730 8723 2.2727e-05 4.6165e-06 0 5.5426 5.5426 5.5426 0 0 1 -360 360
8731 7968 7.9725e-06 1.6195e-06 0 5.5426 5.5426 5.5426 0 0 1 -360 360
8720 8715 2.9348e-05 5.961e-06 0 5.5426 5.5426 5.5426 0 0 1 -360 360
8732 7969 1.3258e-05 2.693e-06 0 5.5426 5.5426 5.5426 0 0 1 -360 360
8717 8708 2.5193e-05 5.117e-06 0 5.5426 5.5426 5.5426 0 0 1 -360 360
8733 8734 1.4808e-05 8.144e-06 0 10.392 10.392 10.392 0 0 1 -360 360
8708 8735 2.8873e-06 3.7122e-06 0 17.84 17.84 17.84 0 0 1 -360 360
8729 8689 3.0725e-05 3.9503e-05 0 17.84 17.84 17.84 0 0 1 -360 360
8714 8733 6.8372e-06 3.7605e-06 0 10.392 10.392 10.392 0 0 1 -360 360
8736 8717 2.2211e-05 4.5115e-06 0 5.5426 5.5426 5.5426 0 0 1 -360 360
8737 8721 3.5807e-05 7.2733e-06 0 5.5426 5.5426 5.5426 0 0 1 -360 360
8735 8689 9.001e-09 1.001e-08 0 17.84 17.84 17.84 0 0 1 -360 360
8738 8729 3.2355e-05 6.5718e-06 0 5.5426 5.5426 5.5426 0 0 1 -360 360
8739 8708 2.536e-05 5.1513e-06 0 5.5426 5.5426 5.5426 0 0 1 -360 360
8740 8714 2.7828e-05 5.6528e-06 0 5.5426 5.5426 5.5426 0 0 1 -360 360
8734 8689 1.1557e-05 9.6305e-06 0 13.856 13.856 13.856 0 0 1 -360 360
8741 8742 1.7106e-05 3.4745e-06 0 5.5426 5.5426 5.5426 0 0 1 -360 360
8743 8744 1.7586e-05 3.5723e-06 0 5.5426 5.5426 5.5426 0 0 1 -360 360
8745 8741 1.6192e-05 3.289e-06 0 5.5426 5.5426 5.5426 0 0 1 -360 360
8744 8737 2.9283e-05 5.9477e-06 0 5.5426 5.5426 5.5426 0 0 1 -360 360
8742 7986 9.7988e-06 1.9903e-06 0 5.5426 5.5426 5.5426 0 0 1 -360 360
8746 8740 4.065e-05 8.2568e-06 0 5.5426 5.5426 5.5426 0 0 1 -360 360
8747 8748 4.8502e-05 9.852e-06 0 5.5426 5.5426 5.5426 0 0 1 -360 360
8749 8736 2.4195e-05 4.9147e-06 0 5.5426 5.5426 5.5426 0 0 1 -360 360
8750 8741 3.186e-05 6.4715e-06 0 5.5426 5.5426 5.5426 0 0 1 -360 360
8751 8752 2.4612e-05 4.9992e-06 0 5.5426 5.5426 5.5426 0 0 1 -360 360
8753 8754 0.00012177 2.4734e-05 0 5.5426 5.5426 5.5426 0 0 1 -360 360
8755 8689 6.112e-06 7.8583e-06 0 17.84 17.84 17.84 0 0 1 -360 360
8756 8751 2.4353e-05 4.9467e-06 0 5.5426 5.5426 5.5426 0 0 1 -360 360
8757 8758 9.2365e-05 1.8762e-05 0 5.5426 5.5426 5.5426 0 0 1 -360 360
8748 8759 3.624e-05 7.3615e-06 0 5.5426 5.5426 5.5426 0 0 1 -360 360
8760 8761 2.7893e-05 5.666e-06 0 5.5426 5.5426 5.5426 0 0 1 -360 360
8762 8738 0.00010699 2.1732e-05 0 5.5426 5.5426 5.5426 0 0 1 -360 360
8763 8753 2.8193e-05 5.7265e-06 0 5.5426 5.5426 5.5426 0 0 1 -360 360
8752 8764 2.0764e-05 4.2178e-06 0 5.5426 5.5426 5.5426 0 0 1 -360 360
8765 8766 2.4638e-05 5.0047e-06 0 5.5426 5.5426 5.5426 0 0 1 -360 360
8758 8746 4.0265e-05 8.1788e-06 0 5.5426 5.5426 5.5426 0 0 1 -360 360
8759 8767 3.3625e-05 6.83e-06 0 5.5426 5.5426 5.5426 0 0 1 -360 360
8768 8748 5.1382e-05 1.0437e-05 0 5.5426 5.5426 5.5426 0 0 1 -360 360
8769 8767 1.35e-05 2.7422e-06 0 5.5426 5.5426 5.5426 0 0 1 -360 360
8764 8770 6.0983e-05 1.2387e-05 0 5.5426 5.5426 5.5426 0 0 1 -360 360
8771 8768 5.656e-05 1.1489e-05 0 5.5426 5.5426 5.5426 0 0 1 -360 360
8754 8758 0.00010043 2.0399e-05 0 5.5426 5.5426 5.5426 0 0 1 -360 360
8761 8750 4.5343e-05 9.2103e-06 0 5.5426 5.5426 5.5426 0 0 1 -360 360
8767 8770 1.3767e-05 7.572e-06 0 10.392 10.392 10.392 0 0 1 -360 360
8766 7967 2.4866e-05 5.051e-06 0 5.5426 5.5426 5.5426 0 0 1 -360 360
8772 8748 7.169e-05 1.4562e-05 0 5.5426 5.5426 5.5426 0 0 1 -360 360
8773 8766 4.338e-05 8.8115e-06 0 5.5426 5.5426 5.5426 0 0 1 -360 360
8770 7966 9.06e-07 7.55e-07 0 13.856 13.856 13.856 0 0 1 -360 360
8774 8767 3.213e-05 6.5263e-06 0 5.5426 5.5426 5.5426 0 0 1 -360 360
8775 8773 1.7599e-05 3.5748e-06 0 5.5426 5.5426 5.5426 0 0 1 -360 360
8776 8777 1.7107e-05 3.4748e-06 0 5.5426 5.5426 5.5426 0 0 1 -360 360
8778 8769 3.5872e-05 7.2868e-06 0 5.5426 5.5426 5.5426 0 0 1 -360 360
8779 8773 3.2168e-05 6.534e-06 0 5.5426 5.5426 5.5426 0 0 1 -360 360
8780 8777 6.5765e-05 1.3358e-05 0 5.5426 5.5426 5.5426 0 0 1 -360 360
8781 8782 3.2638e-05 6.6298e-06 0 5.5426 5.5426 5.5426 0 0 1 -360 360
8777 8778 7.2585e-05 1.4744e-05 0 5.5426 5.5426 5.5426 0 0 1 -360 360
8783 8784 5.2265e-05 1.0617e-05 0 5.5426 5.5426 5.5426 0 0 1 -360 360
8782 8754 8.9535e-05 1.8187e-05 0 5.5426 5.5426 5.5426 0 0 1 -360 360
8784 8774 3.6545e-05 7.4232e-06 0 5.5426 5.5426 5.5426 0 0 1 -360 360
7966 8689 0.00010067 0.00018389 0 14.722 14.722 14.722 0 0 1 -360 360
7967 8755 8.5647e-06 1.1012e-05 0 17.84 17.84 17.84 0 0 1 -360 360
7968 8723 5.7683e-06 3.1725e-06 0 10.392 10.392 10.392 0 0 1 -360 360
7969 8729 1.6658e-06 2.1417e-06 0 17.84 17.84 17.84 0 0 1 -360 360
7970 7969 4.461e-06 2.4536e-06 0 10.392 10.392 10.392 0 0 1 -360 360
7971 8689 1.6058e-05 2.0646e-05 0 17.84 17.84 17.84 0 0 1 -360 360
7972 8680 3.2818e-05 6.6662e-06 0 5.5426 5.5426 5.5426 0 0 1 -360 360
7973 8646 6.8453e-06 3.765e-06 0 10.392 10.392 10.392 0 0 1 -360 360
7974 8634 3.9098e-05 7.9415e-06 0 5.5426 5.5426 5.5426 0 0 1 -360 360
7975 8633 2.926e-06 1.6094e-06 0 10.392 10.392 10.392 0 0 1 -360 360
7976 8486 1.6345e-05 2.1015e-05 0 17.84 17.84 17.84 0 0 1 -360 360
7977 8611 4.735e-06 2.6043e-06 0 10.392 10.392 10.392 0 0 1 -360 360
7978 8577 1.6022e-05 3.2545e-06 0 5.5426 5.5426 5.5426 0 0 1 -360 360
7979 8568 8.9902e-06 4.9448e-06 0 10.392 10.392 10.392 0 0 1 -360 360
7980 8528 1.9571e-05 3.9752e-06 0 5.5426 5.5426 5.5426 0 0 1 -360 360
7981 8450 0.00014468 0.00026428 0 14.722 14.722 14.722 0 0 1 -360 360
7982 8454 9.168e-06 1.8622e-06 0 5.5426 5.5426 5.5426 0 0 1 -360 360
7983 8451 2.6402e-06 3.3945e-06 0 17.84 17.84 17.84 0 0 1 -360 360
7984 8401 9.602e-07 5.281e-07 0 10.392 10.392 10.392 0 0 1 -360 360
7985 8771 3.7215e-05 2.382e-05 0 6.8243 6.8243 6.8243 0 0 1 -360 360
7986 8734 4.6518e-05 9.4488e-06 0 5.5426 5.5426 5.5426 0 0 1 -360 360
7987 8706 2.4444e-05 4.9652e-06 0 5.5426 5.5426 5.5426 0 0 1 -360 360
7988 7997 1.1931e-05 2.4234e-06 0 5.5426 5.5426 5.5426 0 0 1 -360 360
7989 8612 3.4738e-06 1.9106e-06 0 10.392 10.392 10.392 0 0 1 -360 360
7990 7979 5.7323e-06 1.1643e-06 0 5.5426 5.5426 5.5426 0 0 1 -360 360
7991 8516 1.4212e-05 2.8867e-06 0 5.5426 5.5426 5.5426 0 0 1 -360 360
7992 8525 2.3316e-07 1.943e-07 0 13.856 13.856 13.856 0 0 1 -360 360
7993 8433 2.3495e-05 4.7725e-06 0 5.5426 5.5426 5.5426 0 0 1 -360 360
7994 8714 1.5485e-05 3.1453e-06 0 5.5426 5.5426 5.5426 0 0 1 -360 360
7995 8684 1.9926e-05 4.0475e-06 0 5.5426 5.5426 5.5426 0 0 1 -360 360
7996 8655 2.2897e-05 4.6508e-06 0 5.5426 5.5426 5.5426 0 0 1 -360 360
7997 8668 3.4567e-05 7.0212e-06 0 5.5426 5.5426 5.5426 0 0 1 -360 360
7998 8608 1.7943e-05 3.6448e-06 0 5.5426 5.5426 5.5426 0 0 1 -360 360
7999 8536 2.5427e-06 2.119e-06 0 13.856 13.856 13.856 0 0 1 -360 360
8000 8521 8.13e-06 1.6514e-06 0 5.5426 5.5426 5.5426 0 0 1 -360 360
8001 8450 2.8375e-06 3.6483e-06 0 17.84 17.84 17.84 0 0 1 -360 360
8002 8498 5.8568e-06 3.2212e-06 0 10.392 10.392 10.392 0 0 1 -360 360
8003 8476 3.991e-05 8.1065e-06 0 5.5426 5.5426 5.5426 0 0 1 -360 360
8004 8461 5.135e-06 4.2792e-06 0 13.856 13.856 13.856 0 0 1 -360 360
8005 8424 1.7302e-05 3.5145e-06 0 5.5426 5.5426 5.5426 0 0 1 -360 360
8006 8435 2.659e-05 5.401e-06 0 5.5426 5.5426 5.5426 0 0 1 -360 360
8007 8447 2.9317e-05 5.955e-06 0 5.5426 5.5426 5.5426 0 0 1 -360 360
8427 8449 4.012e-05 8.1492e-06 0 5.5426 5.5426 5.5426 0 0 0 -360 360
8453 8481 1.733e-05 9.5318e-06 0 10.392 10.392 10.392 0 0 0 -360 360
8542 8574 9.4158e-06 5.1788e-06 0 10.392 10.392 10.392 0 0 0 -360 360
8567 8559 1.064e-05 5.8522e-06 0 10.392 10.392 10.392 0 0 0 -360 360
8572 8635 0.00012588 2.5567e-05 0 5.5426 5.5426 5.5426 0 0 0 -360 360
8534 8595 1.625e-05 8.9375e-06 0 10.392 10.392 10.392 0 0 0 -360 360
8498 8523 6.23e-06 5.1917e-06 0 13.856 13.856 13.856 0 0 0 -360 360
8583 8613 8.3938e-06 4.6165e-06 0 10.392 10.392 10.392 0 0 0 -360 360
8550 8593 2.26e-05 1.243e-05 0 10.392 10.392 10.392 0 0 0 -360 360
8651 8652 7.2942e-06 4.0118e-06 0 10.392 10.392 10.392 0 0 0 -360 360
8695 8697 0.00018058 3.668e-05 0 5.5426 5.5426 5.5426 0 0 0 -360 360
8682 8699 3.924e-05 7.9705e-06 0 5.5426 5.5426 5.5426 0 0 0 -360 360
8704 8726 1.2342e-05 6.788e-06 0 10.392 10.392 10.392 0 0 0 -360 360
8750 8765 6.552e-05 1.3309e-05 0 5.5426 5.5426 5.5426 0 0 0 -360 360
8500 8512 1.7858e-05 9.8217e-06 0 10.392 10.392 10.392 0 0 0 -360 360
8785 8786 3.1132e-07 1.0199e-06 0 171.47 171.47 171.47 0 0 1 -360 360
8785 8787 5.9602e-07 1.9525e-06 0 171.47 171.47 171.47 0 0 1 -360 360
8785 8788 5.4562e-07 1.7874e-06 0 171.47 171.47 171.47 0 0 1 -360 360
8787 8788 4.2215e-07 1.3829e-06 0 171.47 171.47 171.47 0 0 1 -360 360
8787 8786 3.0637e-07 1.0036e-06 0 171.47 171.47 171.47 0 0 1 -360 360
8786 8788 3.9262e-07 1.2862e-06 0 171.47 171.47 171.47 0 0 1 -360 360
1 8785 3e-07 1e-05 0 1000 1000 1000 0.98765 0 1 -360 360
8787 8486 2.5e-06 8.3333e-05 0 120 120 120 0.97405 0 1 -360 360
8786 8450 2.5e-06 8.3333e-05 0 120 120 120 0.9573 0 1 -360 360
8788 8689 2.5e-06 8.3333e-05 0 120 120 120 0.9654 0 1 -360 360
];
